ELEMENTS
N  AR HE C  H  O  
END
SPECIES
N2                AR                HE                C2H6              H2                O                 OH                H                 
H2O               O2                HO2               H2O2              CH3               CH2O              CH4               CH3O              
C2H5              C2H4              CO                CO2               HCO               CH3OCH2           CH3OCH2O2         CH3OCH3           
CH2OCH2O2H        HO2CH2OCHO        
END
REACTIONS
H2+O<=>OH+H                              5.060e+04    2.670   6290.63
H2+OH<=>H2O+H                            1.170e+09    1.300   3635.28
H+OH+M<=>H2O+M                           4.000e+22   -2.000      0.00
AR/0.38/ HE/0.38/ H2/2.50/ H2O/12.00/ CO/1.90/ CO2/3.80/ 
H2O+O<=>2OH                              7.000e+05    2.330  14548.28
H+O2<=>OH+O                              3.520e+16   -0.700  17069.79
H+O2(+M)<=>HO2(+M)                       4.650e+12    0.440      0.00
AR/0.70/ HE/0.70/ C2H6/1.50/ H2/2.50/ H2O/16.00/ CO/1.20/ CO2/2.40/ 
     LOW  /  5.750e+19   -1.400      0.00 /
!     FCCHECK/  0.5000      0.00 0.5000 1000000000000000019884624838656.00 0.0000      0.00
     TROE/     0.5     0.00 1000000000000000019884624838656.00        /
2HO2=>H2O2+O2                            1.030e+14    0.000  11042.07
     DUPLICATE
2HO2=>H2O2+O2                            1.940e+11    0.000  -1408.94
     DUPLICATE
HO2+OH<=>H2O+O2                          4.500e+14    0.000  10929.73
     DUPLICATE
HO2+OH<=>H2O+O2                          7.000e+12    0.000  -1094.65
     DUPLICATE
HO2+H<=>2OH                              7.080e+13    0.000    294.93
HO2+O=>OH+O2                             2.000e+13    0.000      0.00
HO2+H<=>H2O+O                            3.100e+13    0.000   1720.84
HO2+H=>H2+O2                             1.660e+13    0.000    822.90
H2O2(+M)=>2OH(+M)                        2.630e+19   -1.270  51070.75
AR/0.70/ HE/0.40/ H2/2.50/ H2O/6.00/ H2O2/6.00/ CO/1.50/ CO2/2.00/ 
     LOW  /  7.600e+30   -4.200  51070.75 /
!     FCCHECK/  0.5700 1000000000000000019884624838656.00 0.5700      0.00 0.0000      0.00
H2O2+H=>HO2+H2                           2.300e+13    0.000   7950.05
H2O2+OH=>H2O+HO2                         1.740e+12    0.000    317.88
     DUPLICATE
H2O2+OH=>H2O+HO2                         7.590e+13    0.000   7272.94
     DUPLICATE
H2O2+H=>H2O+OH                           1.000e+13    0.000   3585.09
H2O2+O<=>HO2+OH                          9.630e+06    2.000   3991.40
CH3+O2=>CH2O+OH                          3.300e+11    0.000   8941.20
H+CH3(+M)=>CH4(+M)                       1.270e+16   -0.630    382.89
AR/0.70/ H2/2.00/ H2O/6.00/ CH4/2.00/ CO/1.50/ CO2/2.00/ 
     LOW  /  2.470e+33   -4.760   2440.01 /
     TROE/   0.783    74.00   2941.00   6964.00 /
CH3+HO2=>CH3O+OH                         5.000e+12    0.000      0.00
2CH3(+M)=>C2H6(+M)                       1.810e+13    0.000      0.00
AR/0.70/ C2H6/3.00/ H2/2.00/ H2O/6.00/ CH4/2.00/ CO/1.50/ CO2/2.00/ 
     LOW  /  1.270e+41   -7.000   2762.91 /
!     FCCHECK/  0.3800     73.00 0.6200   1180.00 0.0000      0.00
     TROE/    0.62    73.00   1180.00        /
CH3+O=>CH2O+H                            8.430e+13    0.000      0.00
2CH3=>C2H5+H                             3.160e+13    0.000  14698.85
CH3+OH=>CH2O+H2                          1.650e+07    0.973  -2010.04
2CH3=>C2H4+H2                            1.000e+14    0.000  32002.87
CH4+H=>H2+CH3                            1.300e+04    3.000   8037.76
CH4+O2<=>CH3+HO2                         3.980e+13    0.000  56890.54
CH4+OH=>H2O+CH3                          1.600e+07    1.830   2782.03
CO+OH<=>CO2+H                            4.400e+06    1.500   -740.92
CO+HO2<=>CO2+OH                          2.000e+13    0.000  22944.55
CO+O(+M)<=>CO2(+M)                       1.800e+11    0.000   2384.08
AR/0.70/ HE/0.70/ H2/2.50/ H2O/12.00/ CO/2.00/ CO2/4.00/ 
     LOW  /  1.550e+24   -2.790   4190.97 /
!     FCCHECK/  0.0000      0.00 0.0000      0.00 1.0000      0.00
     TROE/       1     1.00 10000000.00 10000000.00 /
HCO+O2=>CO+HO2                           7.580e+12    0.000    409.89
HCO+OH=>CO+H2O                           3.000e+13    0.000      0.00
HCO+H=>CO+H2                             5.000e+13    0.000      0.00
HCO+M=>CO+H+M                            1.860e+17   -1.000  17000.48
H2/1.90/ H2O/12.00/ CO/2.50/ CO2/2.50/ 
HCO+CH3=>CO+CH4                          5.000e+13    0.000      0.00
CH2O+OH=>HCO+H2O                         3.900e+10    0.890    406.31
CH2O+O=>HCO+OH                           3.500e+13    0.000   3513.38
CH2O+H=>HCO+H2                           5.740e+07    1.900   2748.57
CH2O+HO2=>HCO+H2O2                       4.110e+04    2.500  10210.33
CH3O+O2=>CH2O+HO2                        4.280e-13    7.600  -3537.28
CH3O+M=>CH2O+H+M                         7.780e+13    0.000  13513.38
AR/0.70/ H2/2.00/ H2O/6.00/ CH4/2.00/ CO/1.50/ CO2/2.00/ 
C2H4+O<=>CH3+HCO                         2.250e+06    2.080      0.00
C2H5(+M)<=>C2H4+H(+M)                    1.110e+10    1.037  36768.64
AR/0.70/ H2/2.00/ H2O/6.00/ CH4/2.00/ CO/1.50/ CO2/2.00/ 
     LOW  /  3.990e+33   -4.990  40000.00 /
!     FCCHECK/  0.8320   1203.00 0.1680      0.00 0.0000      0.00
     TROE/   0.168  1203.00      0.00        /
C2H5+O=>CH3+CH2O                         4.240e+13    0.000      0.00
C2H5+O2=>C2H4+HO2                        7.500e+14   -1.000   4799.95
C2H5+H=>C2H4+H2                          3.000e+13    0.000      0.00
C2H5+O<=>C2H4+OH                         3.060e+13    0.000      0.00
C2H6+OH=>C2H5+H2O                        2.200e+07    1.900   1123.33
C2H6+O=>C2H5+OH                          1.400e+00    4.300   2772.47
C2H6(+M)=>C2H5+H(+M)                     8.850e+20   -1.230 102222.75
AR/0.70/ C2H6/3.00/ H2/2.00/ H2O/6.00/ CH4/2.00/ CO/1.50/ CO2/2.00/ 
     LOW  /  4.900e+42   -6.430 107169.93 /
     TROE/    0.84   125.00   2219.00   6882.00 /
C2H6+H=>C2H5+H2                          5.400e+02    3.500   5210.33
C2H6+CH3=>C2H5+CH4                       5.500e-01    4.000   8293.50
CH3OCH2+O2<=>CH3OCH2O2                   2.000e+12    0.000      0.00
CH3OCH2+O2=>2CH2O+OH                     9.530e+10    0.420   3416.11
CH3OCH2=>CH2O+CH3                        1.200e+13    0.000  25750.00
CH3OCH3+OH=>CH3OCH2+H2O                  1.950e+07    1.890   -365.92
CH3OCH3+HO2=>CH3OCH2+H2O2                2.000e+13    0.000  16500.00
CH3OCH3+CH3=>CH3OCH2+CH4                 2.680e+01    3.778   9631.21
CH3OCH3(+M)<=>CH3O+CH3(+M)               2.330e+19   -0.660  84139.10
N2/1.50/ C2H6/4.50/ H2/3.00/ H2O/9.00/ CH4/3.00/ CO/2.25/ CO2/3.00/ CH3OCH3/5.00/ 
     LOW  /  1.720e+59  -11.400  93299.95 /
!     FCCHECK/  0.0000      0.00 1.0000    880.00 0.0000      0.00
     TROE/       1     0.00    880.00        /
CH3OCH3+O2<=>CH3OCH2+HO2                 4.100e+13    0.000  44909.89
CH3OCH3+H=>CH3OCH2+H2                    3.940e+00    4.130   1780.11
2CH3OCH2O2=>O2+2CH3O+2CH2O               1.307e+14   -1.067   -366.40
CH3OCH2O2<=>CH2OCH2O2H                   2.200e+09    0.000  15846.08
CH2OCH2O2H=>2CH2O+OH                     1.500e+13    0.000  20500.00
CH2OCH2O2H+O2=>HO2CH2OCHO+OH             2.860e+16   -1.480   1873.09
HO2CH2OCHO=>CH2O+CO2+OH+H                2.500e+16    0.000  43000.00
HO2CH2OCHO=>CH2O+CO+2OH                  2.500e+16    0.000  43000.00
END
